*SPEF "ieee 1481-1999"
*DESIGN "htax"
*DATE "19:08:15 Friday May 15, 2026"
*VENDOR "The OpenROAD Project"
*PROGRAM "OpenROAD"
*VERSION "dcf36133a369abc8f3c5e5738cd4d82e4903c0e0"
*DESIGN_FLOW "NAME_SCOPE LOCAL" "PIN_CAP NONE"
*DIVIDER /
*DELIMITER :
*BUS_DELIMITER []
*T_UNIT 1 NS
*C_UNIT 1 PF
*R_UNIT 1 OHM
*L_UNIT 1 HENRY

*NAME_MAP
*3 clk
*4 rst_n
*5 rx_data[0]
*6 rx_data[10]
*7 rx_data[11]
*8 rx_data[12]
*9 rx_data[13]
*10 rx_data[14]
*11 rx_data[15]
*12 rx_data[16]
*13 rx_data[17]
*14 rx_data[18]
*15 rx_data[19]
*16 rx_data[1]
*17 rx_data[20]
*18 rx_data[21]
*19 rx_data[22]
*20 rx_data[23]
*21 rx_data[24]
*22 rx_data[25]
*23 rx_data[26]
*24 rx_data[27]
*25 rx_data[28]
*26 rx_data[29]
*27 rx_data[2]
*28 rx_data[30]
*29 rx_data[31]
*30 rx_data[3]
*31 rx_data[4]
*32 rx_data[5]
*33 rx_data[6]
*34 rx_data[7]
*35 rx_data[8]
*36 rx_data[9]
*37 rx_valid
*38 tx_data[0]
*39 tx_data[10]
*40 tx_data[11]
*41 tx_data[12]
*42 tx_data[13]
*43 tx_data[14]
*44 tx_data[15]
*45 tx_data[16]
*46 tx_data[17]
*47 tx_data[18]
*48 tx_data[19]
*49 tx_data[1]
*50 tx_data[20]
*51 tx_data[21]
*52 tx_data[22]
*53 tx_data[23]
*54 tx_data[24]
*55 tx_data[25]
*56 tx_data[26]
*57 tx_data[27]
*58 tx_data[28]
*59 tx_data[29]
*60 tx_data[2]
*61 tx_data[30]
*62 tx_data[31]
*63 tx_data[3]
*64 tx_data[4]
*65 tx_data[5]
*66 tx_data[6]
*67 tx_data[7]
*68 tx_data[8]
*69 tx_data[9]
*70 tx_ready
*71 tx_valid
*72 tx_vc[0]
*73 tx_vc[1]
*74 tx_vc[2]
*75 _000_
*76 _001_
*77 _002_
*78 _003_
*79 _004_
*80 _005_
*81 _006_
*82 _007_
*83 _008_
*84 _009_
*85 _010_
*86 _011_
*87 _012_
*88 _013_
*89 _014_
*90 _015_
*91 _016_
*92 _017_
*93 _018_
*94 _019_
*95 _020_
*96 _021_
*97 _022_
*98 _023_
*99 _024_
*100 _025_
*101 _026_
*102 _027_
*103 _028_
*104 _029_
*105 _030_
*106 _031_
*107 _032_
*108 _033_
*109 _034_
*110 _035_
*111 _036_
*112 _037_
*113 _038_
*114 _039_
*115 _040_
*116 _041_
*117 _042_
*118 _043_
*119 _044_
*120 _045_
*121 _046_
*122 _047_
*123 _048_
*124 _049_
*125 _050_
*126 _051_
*127 _052_
*128 _053_
*129 clknet_0_clk
*130 clknet_3_0__leaf_clk
*131 clknet_3_1__leaf_clk
*132 clknet_3_2__leaf_clk
*133 clknet_3_3__leaf_clk
*134 clknet_3_4__leaf_clk
*135 clknet_3_5__leaf_clk
*136 clknet_3_6__leaf_clk
*137 clknet_3_7__leaf_clk
*138 credit_count\[0\]
*139 credit_count\[1\]
*140 credit_count\[2\]
*141 credit_count\[3\]
*142 net1
*143 net10
*144 net100
*145 net101
*146 net102
*147 net103
*148 net104
*149 net105
*150 net106
*151 net107
*152 net108
*153 net109
*154 net11
*155 net110
*156 net111
*157 net112
*158 net113
*159 net114
*160 net12
*161 net13
*162 net14
*163 net15
*164 net16
*165 net17
*166 net18
*167 net19
*168 net2
*169 net20
*170 net21
*171 net22
*172 net23
*173 net24
*174 net25
*175 net26
*176 net27
*177 net28
*178 net29
*179 net3
*180 net30
*181 net31
*182 net32
*183 net33
*184 net34
*185 net35
*186 net36
*187 net37
*188 net38
*189 net39
*190 net4
*191 net40
*192 net41
*193 net42
*194 net43
*195 net44
*196 net45
*197 net46
*198 net47
*199 net48
*200 net49
*201 net5
*202 net50
*203 net51
*204 net52
*205 net53
*206 net54
*207 net55
*208 net56
*209 net57
*210 net58
*211 net59
*212 net6
*213 net60
*214 net61
*215 net62
*216 net63
*217 net64
*218 net65
*219 net66
*220 net67
*221 net68
*222 net69
*223 net7
*224 net70
*225 net71
*226 net72
*227 net73
*228 net74
*229 net75
*230 net76
*231 net77
*232 net78
*233 net79
*234 net8
*235 net80
*236 net81
*237 net82
*238 net83
*239 net84
*240 net85
*241 net86
*242 net87
*243 net88
*244 net89
*245 net9
*246 net90
*247 net91
*248 net92
*249 net93
*250 net94
*251 net95
*252 net96
*253 net97
*254 net98
*255 net99
*256 state
*257 FILLER_0_102
*258 FILLER_0_11
*259 FILLER_0_129
*260 FILLER_0_132
*261 FILLER_0_54
*262 FILLER_0_57
*263 FILLER_10_27
*264 FILLER_10_3
*265 FILLER_10_65
*266 FILLER_10_68
*267 FILLER_10_85
*268 FILLER_10_88
*269 FILLER_11_101
*270 FILLER_11_110
*271 FILLER_11_113
*272 FILLER_11_116
*273 FILLER_11_124
*274 FILLER_11_16
*275 FILLER_11_3
*276 FILLER_11_43
*277 FILLER_11_46
*278 FILLER_11_55
*279 FILLER_11_57
*280 FILLER_11_6
*281 FILLER_11_86
*282 FILLER_11_89
*283 FILLER_11_92
*284 FILLER_11_95
*285 FILLER_12_109
*286 FILLER_12_27
*287 FILLER_12_3
*288 FILLER_12_44
*289 FILLER_12_55
*290 FILLER_12_58
*291 FILLER_12_82
*292 FILLER_12_88
*293 FILLER_12_91
*294 FILLER_13_108
*295 FILLER_13_11
*296 FILLER_13_111
*297 FILLER_13_55
*298 FILLER_13_63
*299 FILLER_14_111
*300 FILLER_14_114
*301 FILLER_14_123
*302 FILLER_14_132
*303 FILLER_14_27
*304 FILLER_14_3
*305 FILLER_14_58
*306 FILLER_14_61
*307 FILLER_14_64
*308 FILLER_14_67
*309 FILLER_14_70
*310 FILLER_14_73
*311 FILLER_14_76
*312 FILLER_14_79
*313 FILLER_14_82
*314 FILLER_14_85
*315 FILLER_14_88
*316 FILLER_15_105
*317 FILLER_15_108
*318 FILLER_15_111
*319 FILLER_15_129
*320 FILLER_15_132
*321 FILLER_15_3
*322 FILLER_15_36
*323 FILLER_15_47
*324 FILLER_15_57
*325 FILLER_15_60
*326 FILLER_15_63
*327 FILLER_15_66
*328 FILLER_15_69
*329 FILLER_15_72
*330 FILLER_15_75
*331 FILLER_15_78
*332 FILLER_15_81
*333 FILLER_15_84
*334 FILLER_15_87
*335 FILLER_15_90
*336 FILLER_15_93
*337 FILLER_16_128
*338 FILLER_16_131
*339 FILLER_16_24
*340 FILLER_16_27
*341 FILLER_16_3
*342 FILLER_16_6
*343 FILLER_16_69
*344 FILLER_16_72
*345 FILLER_16_75
*346 FILLER_16_78
*347 FILLER_16_81
*348 FILLER_16_85
*349 FILLER_16_88
*350 FILLER_16_91
*351 FILLER_16_94
*352 FILLER_16_97
*353 FILLER_17_113
*354 FILLER_17_116
*355 FILLER_17_128
*356 FILLER_17_131
*357 FILLER_17_26
*358 FILLER_17_3
*359 FILLER_17_44
*360 FILLER_17_47
*361 FILLER_17_6
*362 FILLER_17_78
*363 FILLER_17_81
*364 FILLER_17_84
*365 FILLER_17_87
*366 FILLER_17_9
*367 FILLER_18_16
*368 FILLER_18_19
*369 FILLER_18_3
*370 FILLER_18_37
*371 FILLER_18_48
*372 FILLER_18_57
*373 FILLER_18_6
*374 FILLER_18_69
*375 FILLER_18_79
*376 FILLER_18_82
*377 FILLER_18_85
*378 FILLER_18_88
*379 FILLER_19_27
*380 FILLER_19_3
*381 FILLER_19_30
*382 FILLER_19_33
*383 FILLER_19_55
*384 FILLER_19_57
*385 FILLER_19_60
*386 FILLER_19_91
*387 FILLER_19_94
*388 FILLER_1_111
*389 FILLER_1_113
*390 FILLER_1_116
*391 FILLER_1_128
*392 FILLER_1_131
*393 FILLER_1_16
*394 FILLER_1_19
*395 FILLER_1_3
*396 FILLER_1_30
*397 FILLER_1_33
*398 FILLER_1_57
*399 FILLER_1_6
*400 FILLER_1_76
*401 FILLER_1_99
*402 FILLER_20_127
*403 FILLER_20_130
*404 FILLER_20_133
*405 FILLER_20_27
*406 FILLER_20_3
*407 FILLER_20_56
*408 FILLER_20_79
*409 FILLER_20_82
*410 FILLER_21_105
*411 FILLER_21_108
*412 FILLER_21_111
*413 FILLER_21_113
*414 FILLER_21_116
*415 FILLER_21_128
*416 FILLER_21_131
*417 FILLER_21_16
*418 FILLER_21_3
*419 FILLER_21_47
*420 FILLER_21_57
*421 FILLER_21_6
*422 FILLER_21_60
*423 FILLER_21_63
*424 FILLER_21_73
*425 FILLER_21_84
*426 FILLER_21_87
*427 FILLER_22_111
*428 FILLER_22_113
*429 FILLER_22_124
*430 FILLER_22_27
*431 FILLER_22_29
*432 FILLER_22_32
*433 FILLER_22_50
*434 FILLER_22_53
*435 FILLER_22_57
*436 FILLER_2_118
*437 FILLER_2_132
*438 FILLER_2_24
*439 FILLER_2_27
*440 FILLER_2_29
*441 FILLER_2_32
*442 FILLER_2_94
*443 FILLER_3_111
*444 FILLER_3_3
*445 FILLER_3_37
*446 FILLER_3_57
*447 FILLER_3_6
*448 FILLER_3_67
*449 FILLER_4_112
*450 FILLER_4_27
*451 FILLER_4_3
*452 FILLER_4_37
*453 FILLER_4_79
*454 FILLER_4_82
*455 FILLER_4_85
*456 FILLER_5_113
*457 FILLER_5_116
*458 FILLER_5_47
*459 FILLER_5_57
*460 FILLER_5_91
*461 FILLER_5_94
*462 FILLER_6_117
*463 FILLER_6_24
*464 FILLER_6_27
*465 FILLER_6_29
*466 FILLER_6_3
*467 FILLER_6_32
*468 FILLER_6_50
*469 FILLER_6_6
*470 FILLER_6_80
*471 FILLER_6_83
*472 FILLER_6_93
*473 FILLER_7_116
*474 FILLER_7_3
*475 FILLER_7_34
*476 FILLER_7_57
*477 FILLER_7_6
*478 FILLER_7_80
*479 FILLER_7_83
*480 FILLER_8_110
*481 FILLER_8_14
*482 FILLER_8_17
*483 FILLER_8_27
*484 FILLER_8_3
*485 FILLER_8_38
*486 FILLER_8_49
*487 FILLER_8_52
*488 FILLER_8_83
*489 FILLER_8_85
*490 FILLER_8_88
*491 FILLER_9_106
*492 FILLER_9_109
*493 FILLER_9_113
*494 FILLER_9_116
*495 FILLER_9_16
*496 FILLER_9_27
*497 FILLER_9_3
*498 FILLER_9_49
*499 FILLER_9_6
*500 FILLER_9_81
*501 FILLER_9_84
*502 PHY_EDGE_ROW_0_Left_23
*503 PHY_EDGE_ROW_0_Right_0
*504 PHY_EDGE_ROW_10_Left_33
*505 PHY_EDGE_ROW_10_Right_10
*506 PHY_EDGE_ROW_11_Left_34
*507 PHY_EDGE_ROW_11_Right_11
*508 PHY_EDGE_ROW_12_Left_35
*509 PHY_EDGE_ROW_12_Right_12
*510 PHY_EDGE_ROW_13_Left_36
*511 PHY_EDGE_ROW_13_Right_13
*512 PHY_EDGE_ROW_14_Left_37
*513 PHY_EDGE_ROW_14_Right_14
*514 PHY_EDGE_ROW_15_Left_38
*515 PHY_EDGE_ROW_15_Right_15
*516 PHY_EDGE_ROW_16_Left_39
*517 PHY_EDGE_ROW_16_Right_16
*518 PHY_EDGE_ROW_17_Left_40
*519 PHY_EDGE_ROW_17_Right_17
*520 PHY_EDGE_ROW_18_Left_41
*521 PHY_EDGE_ROW_18_Right_18
*522 PHY_EDGE_ROW_19_Left_42
*523 PHY_EDGE_ROW_19_Right_19
*524 PHY_EDGE_ROW_1_Left_24
*525 PHY_EDGE_ROW_1_Right_1
*526 PHY_EDGE_ROW_20_Left_43
*527 PHY_EDGE_ROW_20_Right_20
*528 PHY_EDGE_ROW_21_Left_44
*529 PHY_EDGE_ROW_21_Right_21
*530 PHY_EDGE_ROW_22_Left_45
*531 PHY_EDGE_ROW_22_Right_22
*532 PHY_EDGE_ROW_2_Left_25
*533 PHY_EDGE_ROW_2_Right_2
*534 PHY_EDGE_ROW_3_Left_26
*535 PHY_EDGE_ROW_3_Right_3
*536 PHY_EDGE_ROW_4_Left_27
*537 PHY_EDGE_ROW_4_Right_4
*538 PHY_EDGE_ROW_5_Left_28
*539 PHY_EDGE_ROW_5_Right_5
*540 PHY_EDGE_ROW_6_Left_29
*541 PHY_EDGE_ROW_6_Right_6
*542 PHY_EDGE_ROW_7_Left_30
*543 PHY_EDGE_ROW_7_Right_7
*544 PHY_EDGE_ROW_8_Left_31
*545 PHY_EDGE_ROW_8_Right_8
*546 PHY_EDGE_ROW_9_Left_32
*547 PHY_EDGE_ROW_9_Right_9
*548 TAP_TAPCELL_ROW_0_46
*549 TAP_TAPCELL_ROW_0_47
*550 TAP_TAPCELL_ROW_0_48
*551 TAP_TAPCELL_ROW_0_49
*552 TAP_TAPCELL_ROW_10_68
*553 TAP_TAPCELL_ROW_10_69
*554 TAP_TAPCELL_ROW_11_70
*555 TAP_TAPCELL_ROW_11_71
*556 TAP_TAPCELL_ROW_12_72
*557 TAP_TAPCELL_ROW_12_73
*558 TAP_TAPCELL_ROW_13_74
*559 TAP_TAPCELL_ROW_13_75
*560 TAP_TAPCELL_ROW_14_76
*561 TAP_TAPCELL_ROW_14_77
*562 TAP_TAPCELL_ROW_15_78
*563 TAP_TAPCELL_ROW_15_79
*564 TAP_TAPCELL_ROW_16_80
*565 TAP_TAPCELL_ROW_16_81
*566 TAP_TAPCELL_ROW_17_82
*567 TAP_TAPCELL_ROW_17_83
*568 TAP_TAPCELL_ROW_18_84
*569 TAP_TAPCELL_ROW_18_85
*570 TAP_TAPCELL_ROW_19_86
*571 TAP_TAPCELL_ROW_19_87
*572 TAP_TAPCELL_ROW_1_50
*573 TAP_TAPCELL_ROW_1_51
*574 TAP_TAPCELL_ROW_20_88
*575 TAP_TAPCELL_ROW_20_89
*576 TAP_TAPCELL_ROW_21_90
*577 TAP_TAPCELL_ROW_21_91
*578 TAP_TAPCELL_ROW_22_92
*579 TAP_TAPCELL_ROW_22_93
*580 TAP_TAPCELL_ROW_22_94
*581 TAP_TAPCELL_ROW_22_95
*582 TAP_TAPCELL_ROW_2_52
*583 TAP_TAPCELL_ROW_2_53
*584 TAP_TAPCELL_ROW_3_54
*585 TAP_TAPCELL_ROW_3_55
*586 TAP_TAPCELL_ROW_4_56
*587 TAP_TAPCELL_ROW_4_57
*588 TAP_TAPCELL_ROW_5_58
*589 TAP_TAPCELL_ROW_5_59
*590 TAP_TAPCELL_ROW_6_60
*591 TAP_TAPCELL_ROW_6_61
*592 TAP_TAPCELL_ROW_7_62
*593 TAP_TAPCELL_ROW_7_63
*594 TAP_TAPCELL_ROW_8_64
*595 TAP_TAPCELL_ROW_8_65
*596 TAP_TAPCELL_ROW_9_66
*597 TAP_TAPCELL_ROW_9_67
*598 _054_
*599 _055_
*600 _056_
*601 _057_
*602 _058_
*603 _059_
*604 _060_
*605 _061_
*606 _062_
*607 _063_
*608 _064_
*609 _065_
*610 _066_
*611 _067_
*612 _068_
*613 _069_
*614 _070_
*615 _071_
*616 _072_
*617 _073_
*618 _074_
*619 _075_
*620 _076_
*621 _077_
*622 _078_
*623 _079_
*624 _080_
*625 _081_
*626 _082_
*627 _083_
*628 _084_
*629 _085_
*630 _086_
*631 _087_
*632 _088_
*633 _089_
*634 _090_
*635 _091_
*636 _092_
*637 _093_
*638 _094_
*639 _095_
*640 _096_
*641 _097_
*642 _098_
*643 _099_
*644 _100_
*645 _101_
*646 _102_
*647 _103_
*648 _104_
*649 _105_
*650 _106_
*651 _107_
*652 _108_
*653 _109_
*654 _110_
*655 _111_
*656 _112_
*657 _113_
*658 _114_
*659 _115_
*660 _116_
*661 _117_
*662 _118_
*663 _119_
*664 _120_
*665 _121_
*666 _122_
*667 _123_
*668 _124_
*669 _125_
*670 _126_
*671 _127_
*672 _128_
*673 _129_
*674 _130_
*675 _131_
*676 _132_
*677 _133_
*678 _134_
*679 _135_
*680 _136_
*681 _137_
*682 _138_
*683 _139_
*684 _140_
*685 _141_
*686 _142_
*687 _143_
*688 _144_
*689 _145_
*690 _146_
*691 clkbuf_0_clk
*692 clkbuf_3_0__f_clk
*693 clkbuf_3_1__f_clk
*694 clkbuf_3_2__f_clk
*695 clkbuf_3_3__f_clk
*696 clkbuf_3_4__f_clk
*697 clkbuf_3_5__f_clk
*698 clkbuf_3_6__f_clk
*699 clkbuf_3_7__f_clk
*700 clkload0
*701 clkload1
*702 clkload2
*703 clkload3
*704 clkload4
*705 clkload5
*706 clkload6
*707 fanout69
*708 fanout70
*709 fanout71
*710 fanout72
*711 fanout73
*712 fanout75
*713 fanout77
*714 fanout79
*715 fanout80
*716 hold100
*717 hold101
*718 hold102
*719 hold103
*720 hold104
*721 hold105
*722 hold106
*723 hold107
*724 hold108
*725 hold109
*726 hold110
*727 hold111
*728 hold112
*729 hold113
*730 hold114
*731 hold81
*732 hold82
*733 hold83
*734 hold84
*735 hold85
*736 hold86
*737 hold87
*738 hold88
*739 hold89
*740 hold90
*741 hold91
*742 hold92
*743 hold93
*744 hold94
*745 hold95
*746 hold96
*747 hold97
*748 hold98
*749 hold99
*750 input1
*751 input10
*752 input11
*753 input12
*754 input13
*755 input14
*756 input15
*757 input16
*758 input17
*759 input18
*760 input19
*761 input2
*762 input20
*763 input21
*764 input22
*765 input23
*766 input24
*767 input25
*768 input26
*769 input27
*770 input28
*771 input29
*772 input3
*773 input30
*774 input31
*775 input32
*776 input33
*777 input34
*778 input4
*779 input5
*780 input6
*781 input7
*782 input8
*783 input9
*784 load_slew74
*785 load_slew76
*786 load_slew78
*787 output35
*788 output36
*789 output37
*790 output38
*791 output39
*792 output40
*793 output41
*794 output42
*795 output43
*796 output44
*797 output45
*798 output46
*799 output47
*800 output48
*801 output49
*802 output50
*803 output51
*804 output52
*805 output53
*806 output54
*807 output55
*808 output56
*809 output57
*810 output58
*811 output59
*812 output60
*813 output61
*814 output62
*815 output63
*816 output64
*817 output65
*818 output66
*819 output67
*820 output68

*PORTS
clk I
rst_n I
rx_data[0] O
rx_data[10] O
rx_data[11] O
rx_data[12] O
rx_data[13] O
rx_data[14] O
rx_data[15] O
rx_data[16] O
rx_data[17] O
rx_data[18] O
rx_data[19] O
rx_data[1] O
rx_data[20] O
rx_data[21] O
rx_data[22] O
rx_data[23] O
rx_data[24] O
rx_data[25] O
rx_data[26] O
rx_data[27] O
rx_data[28] O
rx_data[29] O
rx_data[2] O
rx_data[30] O
rx_data[31] O
rx_data[3] O
rx_data[4] O
rx_data[5] O
rx_data[6] O
rx_data[7] O
rx_data[8] O
rx_data[9] O
rx_valid O
tx_data[0] I
tx_data[10] I
tx_data[11] I
tx_data[12] I
tx_data[13] I
tx_data[14] I
tx_data[15] I
tx_data[16] I
tx_data[17] I
tx_data[18] I
tx_data[19] I
tx_data[1] I
tx_data[20] I
tx_data[21] I
tx_data[22] I
tx_data[23] I
tx_data[24] I
tx_data[25] I
tx_data[26] I
tx_data[27] I
tx_data[28] I
tx_data[29] I
tx_data[2] I
tx_data[30] I
tx_data[31] I
tx_data[3] I
tx_data[4] I
tx_data[5] I
tx_data[6] I
tx_data[7] I
tx_data[8] I
tx_data[9] I
tx_ready O
tx_valid I
tx_vc[0] I
tx_vc[1] I
tx_vc[2] I

*D_NET *3 0.00681042
*CONN
*P clk I
*I *691:A I *D sky130_fd_sc_hd__clkbuf_16
*CAP
1 clk 0.00293676
2 *691:A 0
3 *3:10 0.00293676
4 *3:10 rx_data[18] 0.000298641
5 *3:10 rx_data[19] 0
6 *3:10 rx_data[24] 0
7 *3:10 *674:CLK 0.000121176
8 *3:10 *674:D 5.64009e-05
9 *3:10 *682:RESET_B 0
10 *3:10 *689:D 0
11 *3:10 *734:A 9.01257e-06
12 *3:10 *803:A 0.000115318
13 *3:10 *226:46 0
14 *3:10 *230:10 4.95221e-05
15 *3:10 *230:20 0.000252279
16 *3:10 *230:28 3.45558e-05
*RES
1 clk *3:10 18.9046 
2 *3:10 *691:A 3.6 
*END

*D_NET *4 0.00131696
*CONN
*P rst_n I
*I *750:A I *D sky130_fd_sc_hd__clkdlybuf4s25_1
*CAP
1 rst_n 0.000558874
2 *750:A 0.000558874
3 *750:A rx_data[11] 0
4 *750:A rx_data[7] 0.000122817
5 *750:A *778:A 7.63967e-05
*RES
1 rst_n *750:A 13.3569 
*END

*D_NET *5 0.00315881
*CONN
*P rx_data[0] O
*I *787:X O *D sky130_fd_sc_hd__clkdlybuf4s25_1
*CAP
1 rx_data[0] 0.000929682
2 *787:X 0.000929682
3 rx_data[0] rx_data[23] 3.56992e-05
4 rx_data[0] rx_data[31] 0.00024987
5 rx_data[0] *614:A1 0.000413727
6 rx_data[0] *616:A1 6.90761e-05
7 rx_data[0] *635:S 3.86607e-05
8 rx_data[0] *676:RESET_B 0
9 rx_data[0] *733:A 2.49909e-05
10 rx_data[0] *747:A 0.000252903
11 rx_data[0] *758:A 8.2693e-05
12 rx_data[0] *768:A 0
13 rx_data[0] *787:A 2.68526e-05
14 rx_data[0] *194:22 3.86529e-05
15 rx_data[0] *222:16 2.42236e-05
16 rx_data[0] *222:24 4.20983e-05
*RES
1 *787:X rx_data[0] 23.325 
*END

*D_NET *6 0.0036632
*CONN
*P rx_data[10] O
*I *788:X O *D sky130_fd_sc_hd__clkdlybuf4s25_1
*CAP
1 rx_data[10] 0.00102192
2 *788:X 0.00102192
3 rx_data[10] rx_data[3] 0.000279787
4 rx_data[10] rx_data[6] 8.61576e-05
5 rx_data[10] *621:A1 4.82863e-05
6 rx_data[10] *770:A 0.000172524
7 rx_data[10] *772:A 0.000325091
8 rx_data[10] *815:A 4.89295e-05
9 rx_data[10] *177:26 0.000658589
*RES
1 *788:X rx_data[10] 20.6084 
*END

*D_NET *7 0.00297885
*CONN
*P rx_data[11] O
*I *789:X O *D sky130_fd_sc_hd__clkdlybuf4s25_1
*CAP
1 rx_data[11] 0.000862636
2 *789:X 0.000862636
3 rx_data[11] rx_data[7] 0.000170424
4 rx_data[11] *774:A 0.000934332
5 rx_data[11] *789:A 0.000148823
6 *750:A rx_data[11] 0
*RES
1 *789:X rx_data[11] 20.8349 
*END

*D_NET *8 0.0033799
*CONN
*P rx_data[12] O
*I *790:X O *D sky130_fd_sc_hd__clkdlybuf4s25_1
*CAP
1 rx_data[12] 0.00114645
2 *790:X 0.00114645
3 rx_data[12] rx_data[3] 0
4 rx_data[12] *616:A0 0.000112386
5 rx_data[12] *629:A0 7.03276e-05
6 rx_data[12] *629:A1 2.17489e-05
7 rx_data[12] *665:CLK 0
8 rx_data[12] *772:A 0
9 rx_data[12] *779:A 0.000496842
10 rx_data[12] *812:A 0
11 rx_data[12] *222:89 0.000385698
*RES
1 *790:X rx_data[12] 17.636 
*END

*D_NET *9 0.00365799
*CONN
*P rx_data[13] O
*I *791:X O *D sky130_fd_sc_hd__clkdlybuf4s25_1
*CAP
1 rx_data[13] 0.00109177
2 *791:X 0.00109177
3 rx_data[13] rx_data[16] 0.000957331
4 rx_data[13] rx_data[21] 0
5 rx_data[13] *606:A0 8.14331e-05
6 rx_data[13] *765:A 0.000197822
7 rx_data[13] *780:A 0.000237869
8 rx_data[13] *783:A 0
*RES
1 *791:X rx_data[13] 31.165 
*END

*D_NET *10 0.00312858
*CONN
*P rx_data[14] O
*I *792:X O *D sky130_fd_sc_hd__clkdlybuf4s25_1
*CAP
1 rx_data[14] 0.000908372
2 *792:X 0.000908372
3 rx_data[14] rx_data[27] 0.000457169
4 rx_data[14] rx_data[9] 0.000238434
5 rx_data[14] *618:S 4.66108e-05
6 rx_data[14] *763:A 1.94009e-05
7 rx_data[14] *792:A 0.00030948
8 rx_data[14] *818:A 0.000240743
*RES
1 *792:X rx_data[14] 15.8739 
*END

*D_NET *11 0.00319876
*CONN
*P rx_data[15] O
*I *793:X O *D sky130_fd_sc_hd__clkdlybuf4s25_1
*CAP
1 rx_data[15] 0.00116103
2 *793:X 0.00116103
3 rx_data[15] *619:A0 0
4 rx_data[15] *631:A0 0.000515106
5 rx_data[15] *631:A1 0.000353505
6 rx_data[15] *763:A 0
7 rx_data[15] *782:A 0
8 rx_data[15] *793:A 8.09021e-06
9 rx_data[15] *137:12 0
*RES
1 *793:X rx_data[15] 26.46 
*END

*D_NET *12 0.00430237
*CONN
*P rx_data[16] O
*I *794:X O *D sky130_fd_sc_hd__clkdlybuf4s25_1
*CAP
1 rx_data[16] 0.00101544
2 *794:X 0.00101544
3 rx_data[16] rx_data[29] 0.000268292
4 rx_data[16] rx_data[2] 0.000266618
5 rx_data[16] *697:A 4.82919e-05
6 rx_data[16] *780:A 0.000730958
7 rx_data[16] *782:A 0
8 rx_data[16] *783:A 0
9 rx_data[13] rx_data[16] 0.000957331
*RES
1 *794:X rx_data[16] 31.225 
*END

*D_NET *13 0.00768405
*CONN
*P rx_data[17] O
*I *795:X O *D sky130_fd_sc_hd__clkdlybuf4s25_1
*CAP
1 rx_data[17] 0.00350311
2 *795:X 0.00350311
3 rx_data[17] rx_data[24] 0
4 rx_data[17] rx_data[31] 0.000227474
5 rx_data[17] *751:A 0.000252519
6 rx_data[17] *757:A 0.000123699
7 rx_data[17] *803:A 1.79483e-05
8 rx_data[17] *811:A 4.66108e-05
9 rx_data[17] *129:41 9.58678e-06
*RES
1 *795:X rx_data[17] 17.0714 
*END

*D_NET *14 0.00307845
*CONN
*P rx_data[18] O
*I *796:X O *D sky130_fd_sc_hd__clkdlybuf4s25_1
*CAP
1 rx_data[18] 0.000835102
2 *796:X 0.000835102
3 rx_data[18] rx_data[26] 0.000538587
4 rx_data[18] rx_data[5] 6.00081e-05
5 rx_data[18] *752:A 0.000158856
6 rx_data[18] *762:A 0.000352156
7 *3:10 rx_data[18] 0.000298641
*RES
1 *796:X rx_data[18] 17.3251 
*END

*D_NET *15 0.00326807
*CONN
*P rx_data[19] O
*I *797:X O *D sky130_fd_sc_hd__clkdlybuf4s25_1
*CAP
1 rx_data[19] 0.000963967
2 *797:X 0.000963967
3 rx_data[19] rx_data[26] 4.29016e-05
4 rx_data[19] rx_data[5] 0.000347649
5 rx_data[19] *622:A0 0.000533089
6 rx_data[19] *754:A 0
7 rx_data[19] *770:A 0
8 rx_data[19] *797:A 2.0514e-05
9 rx_data[19] *805:A 0.000387575
10 rx_data[19] *224:106 8.41015e-06
11 *3:10 rx_data[19] 0
*RES
1 *797:X rx_data[19] 11.2587 
*END

*D_NET *16 0.00255566
*CONN
*P rx_data[1] O
*I *798:X O *D sky130_fd_sc_hd__clkdlybuf4s25_1
*CAP
1 rx_data[1] 0.000795891
2 *798:X 0.000795891
3 rx_data[1] rx_data[22] 0
4 rx_data[1] rx_data[24] 0.000840461
5 rx_data[1] *725:A 4.20366e-05
6 rx_data[1] *757:A 0
7 rx_data[1] *177:26 8.13778e-05
*RES
1 *798:X rx_data[1] 7.38003 
*END

*D_NET *17 0.00146805
*CONN
*P rx_data[20] O
*I *799:X O *D sky130_fd_sc_hd__clkdlybuf4s25_1
*CAP
1 rx_data[20] 0.000433632
2 *799:X 0.000433632
3 rx_data[20] *755:A 0.000440154
4 rx_data[20] *767:A 0.000160635
*RES
1 *799:X rx_data[20] 13.575 
*END

*D_NET *18 0.00401446
*CONN
*P rx_data[21] O
*I *800:X O *D sky130_fd_sc_hd__clkdlybuf4s25_1
*CAP
1 rx_data[21] 0.00162825
2 *800:X 0.00162825
3 rx_data[21] *617:A0 2.67022e-05
4 rx_data[21] *625:A1 0
5 rx_data[21] *666:D 0
6 rx_data[21] *674:D 4.82863e-05
7 rx_data[21] *674:RESET_B 8.07672e-05
8 rx_data[21] *718:A 0
9 rx_data[21] *722:A 0
10 rx_data[21] *756:A 0
11 rx_data[21] *780:A 0.000418822
12 rx_data[21] *783:A 0
13 rx_data[21] *800:A 0.000183373
14 rx_data[21] *193:10 0
15 rx_data[21] *230:28 0
16 rx_data[13] rx_data[21] 0
*RES
1 *800:X rx_data[21] 30.345 
*END

*D_NET *19 0.00274693
*CONN
*P rx_data[22] O
*I *801:X O *D sky130_fd_sc_hd__clkdlybuf4s25_1
*CAP
1 rx_data[22] 0.000795837
2 *801:X 0.000795837
3 rx_data[22] rx_data[3] 0.000146874
4 rx_data[22] *623:A1 0
5 rx_data[22] *626:S 0
6 rx_data[22] *629:A0 5.47642e-05
7 rx_data[22] *675:CLK 0.000250807
8 rx_data[22] *675:D 9.20976e-05
9 rx_data[22] *678:D 5.95339e-05
10 rx_data[22] *720:A 7.30505e-05
11 rx_data[22] *757:A 0.000445305
12 rx_data[22] *769:A 3.28293e-05
13 rx_data[22] *770:A 0
14 rx_data[1] rx_data[22] 0
*RES
1 *801:X rx_data[22] 16.848 
*END

*D_NET *20 0.00284495
*CONN
*P rx_data[23] O
*I *802:X O *D sky130_fd_sc_hd__clkdlybuf4s25_1
*CAP
1 rx_data[23] 0.000711438
2 *802:X 0.000711438
3 rx_data[23] rx_data[31] 0.000247018
4 rx_data[23] *627:A1 2.81489e-05
5 rx_data[23] *635:S 0.000127383
6 rx_data[23] *676:RESET_B 0.00011379
7 rx_data[23] *747:A 0.000157099
8 rx_data[23] *764:A 0.000433067
9 rx_data[23] *802:A 4.66108e-05
10 rx_data[23] *194:22 7.06865e-05
11 rx_data[23] *211:14 0.000104008
12 rx_data[23] *227:8 5.85626e-05
13 rx_data[0] rx_data[23] 3.56992e-05
*RES
1 *802:X rx_data[23] 21.075 
*END

*D_NET *21 0.00594825
*CONN
*P rx_data[24] O
*I *803:X O *D sky130_fd_sc_hd__clkdlybuf4s25_1
*CAP
1 rx_data[24] 0.00218556
2 *803:X 0.00218556
3 rx_data[24] *689:D 3.99339e-05
4 rx_data[24] *708:A 0
5 rx_data[24] *754:A 0
6 rx_data[24] *759:A 0.000639544
7 rx_data[24] *803:A 0
8 rx_data[24] *811:A 5.72004e-05
9 rx_data[24] *226:20 0
10 rx_data[17] rx_data[24] 0
11 rx_data[1] rx_data[24] 0.000840461
12 *3:10 rx_data[24] 0
*RES
1 *803:X rx_data[24] 14.3809 
*END

*D_NET *22 0.00450465
*CONN
*P rx_data[25] O
*I *804:X O *D sky130_fd_sc_hd__clkdlybuf4s25_1
*CAP
1 rx_data[25] 0.00169515
2 *804:X 0.00169515
3 rx_data[25] *604:A0 1.08056e-05
4 rx_data[25] *604:A1 7.01359e-05
5 rx_data[25] *700:A 6.19591e-05
6 rx_data[25] *760:A 0.000827816
7 rx_data[25] *779:A 0
8 rx_data[25] *222:89 0.000143637
*RES
1 *804:X rx_data[25] 9.8921 
*END

*D_NET *23 0.00617543
*CONN
*P rx_data[26] O
*I *805:X O *D sky130_fd_sc_hd__clkdlybuf4s25_1
*CAP
1 rx_data[26] 0.00162079
2 *805:X 0.00162079
3 rx_data[26] rx_data[5] 6.89e-05
4 rx_data[26] *609:A0 5.6361e-05
5 rx_data[26] *609:A1 4.66108e-05
6 rx_data[26] *622:A0 0.00037387
7 rx_data[26] *658:D 0.000349587
8 rx_data[26] *717:A 0.00042564
9 rx_data[26] *740:A 8.65905e-05
10 rx_data[26] *752:A 0.000328062
11 rx_data[26] *762:A 0
12 rx_data[26] *797:A 0.000163204
13 rx_data[26] *805:A 0.000409534
14 rx_data[26] *809:A 4.40028e-05
15 rx_data[18] rx_data[26] 0.000538587
16 rx_data[19] rx_data[26] 4.29016e-05
*RES
1 *805:X rx_data[26] 35.4468 
*END

*D_NET *24 0.00268442
*CONN
*P rx_data[27] O
*I *806:X O *D sky130_fd_sc_hd__clkdlybuf4s25_1
*CAP
1 rx_data[27] 0.000373109
2 *806:X 0.000373109
3 rx_data[27] rx_data[9] 0.0004133
4 rx_data[27] *763:A 0.000447742
5 rx_data[27] *806:A 0
6 rx_data[27] *818:A 2.84224e-05
7 rx_data[27] *225:67 0.000298442
8 rx_data[27] *225:88 0.000293127
9 rx_data[14] rx_data[27] 0.000457169
*RES
1 *806:X rx_data[27] 12.1424 
*END

*D_NET *25 0.00185061
*CONN
*P rx_data[28] O
*I *807:X O *D sky130_fd_sc_hd__clkdlybuf4s25_1
*CAP
1 rx_data[28] 0.000652827
2 *807:X 0.000652827
3 rx_data[28] rx_data[6] 0.000439388
4 rx_data[28] *635:A0 2.75229e-05
5 rx_data[28] *747:A 1.61831e-05
6 rx_data[28] *758:A 0
7 rx_data[28] *807:A 2.75145e-05
8 rx_data[28] *815:A 3.43427e-05
*RES
1 *807:X rx_data[28] 15.99 
*END

*D_NET *26 0.00447396
*CONN
*P rx_data[29] O
*I *808:X O *D sky130_fd_sc_hd__clkdlybuf4s25_1
*CAP
1 rx_data[29] 0.000856766
2 *808:X 0.000856766
3 rx_data[29] rx_data[2] 0.000979784
4 rx_data[29] *606:S 0.000679965
5 rx_data[29] *766:A 1.87645e-05
6 rx_data[29] *805:A 0.000463611
7 rx_data[29] *808:A 0
8 rx_data[29] *224:143 8.73147e-06
9 rx_data[29] *226:64 0.000341275
10 rx_data[16] rx_data[29] 0.000268292
*RES
1 *808:X rx_data[29] 29.19 
*END

*D_NET *27 0.00338239
*CONN
*P rx_data[2] O
*I *809:X O *D sky130_fd_sc_hd__clkdlybuf4s25_1
*CAP
1 rx_data[2] 0.000792838
2 *809:X 0.000792838
3 rx_data[2] *655:CLK 0
4 rx_data[2] *655:D 0.000383698
5 rx_data[2] *674:CLK 0
6 rx_data[2] *682:RESET_B 0
7 rx_data[2] *808:A 0.000119512
8 rx_data[2] *208:8 4.70982e-05
9 rx_data[16] rx_data[2] 0.000266618
10 rx_data[29] rx_data[2] 0.000979784
*RES
1 *809:X rx_data[2] 25.485 
*END

*D_NET *28 0.0027199
*CONN
*P rx_data[30] O
*I *810:X O *D sky130_fd_sc_hd__clkdlybuf4s25_1
*CAP
1 rx_data[30] 0.000942894
2 *810:X 0.000942894
3 rx_data[30] rx_data[8] 0.000257362
4 rx_data[30] *612:A0 4.9968e-05
5 rx_data[30] *612:S 6.44616e-05
6 rx_data[30] *634:S 8.20498e-05
7 rx_data[30] *683:D 0
8 rx_data[30] *719:A 4.82863e-05
9 rx_data[30] *767:A 0
10 rx_data[30] *775:A 0
11 rx_data[30] *810:A 0.000239807
12 rx_data[30] *132:24 9.21735e-05
*RES
1 *810:X rx_data[30] 22.335 
*END

*D_NET *29 0.00654635
*CONN
*P rx_data[31] O
*I *811:X O *D sky130_fd_sc_hd__clkdlybuf4s25_1
*CAP
1 rx_data[31] 0.00276332
2 *811:X 0.00276332
3 rx_data[31] *757:A 1.19249e-05
4 rx_data[31] *773:A 4.21127e-05
5 rx_data[31] *803:A 0.000115046
6 rx_data[31] *811:A 0
7 rx_data[31] *129:55 0.000126264
8 rx_data[0] rx_data[31] 0.00024987
9 rx_data[17] rx_data[31] 0.000227474
10 rx_data[23] rx_data[31] 0.000247018
*RES
1 *811:X rx_data[31] 16.9649 
*END

*D_NET *30 0.00492089
*CONN
*P rx_data[3] O
*I *812:X O *D sky130_fd_sc_hd__clkdlybuf4s25_1
*CAP
1 rx_data[3] 0.00082342
2 *812:X 0.00082342
3 rx_data[3] *663:CLK 0.000230981
4 rx_data[3] *663:D 5.39718e-05
5 rx_data[3] *665:CLK 0.000107341
6 rx_data[3] *675:CLK 0.000230261
7 rx_data[3] *769:A 0.000383235
8 rx_data[3] *770:A 0.00144893
9 rx_data[3] *773:A 0.000392667
10 rx_data[10] rx_data[3] 0.000279787
11 rx_data[12] rx_data[3] 0
12 rx_data[22] rx_data[3] 0.000146874
*RES
1 *812:X rx_data[3] 24.6832 
*END

*D_NET *31 0.00285775
*CONN
*P rx_data[4] O
*I *813:X O *D sky130_fd_sc_hd__clkdlybuf4s25_1
*CAP
1 rx_data[4] 0.000876518
2 *813:X 0.000876518
3 rx_data[4] *623:A1 6.12642e-05
4 rx_data[4] *672:CLK 0
5 rx_data[4] *672:D 9.50342e-06
6 rx_data[4] *672:RESET_B 4.2463e-05
7 rx_data[4] *754:A 0.000502403
8 rx_data[4] *759:A 0.000489084
9 rx_data[4] *770:A 0
*RES
1 *813:X rx_data[4] 14.0695 
*END

*D_NET *32 0.00259268
*CONN
*P rx_data[5] O
*I *814:X O *D sky130_fd_sc_hd__clkdlybuf4s25_1
*CAP
1 rx_data[5] 0.00076466
2 *814:X 0.00076466
3 rx_data[5] *671:CLK 4.91189e-05
4 rx_data[5] *671:D 0
5 rx_data[5] *679:D 0
6 rx_data[5] *752:A 0.000327418
7 rx_data[5] *762:A 0
8 rx_data[5] *770:A 0.000162393
9 rx_data[5] *771:A 4.78735e-05
10 rx_data[5] *814:A 0
11 rx_data[5] *215:10 0
12 rx_data[18] rx_data[5] 6.00081e-05
13 rx_data[19] rx_data[5] 0.000347649
14 rx_data[26] rx_data[5] 6.89e-05
*RES
1 *814:X rx_data[5] 17.4566 
*END

*D_NET *33 0.00355516
*CONN
*P rx_data[6] O
*I *815:X O *D sky130_fd_sc_hd__clkdlybuf4s25_1
*CAP
1 rx_data[6] 0.000750637
2 *815:X 0.000750637
3 rx_data[6] *635:A0 0.000493531
4 rx_data[6] *635:A1 2.10152e-05
5 rx_data[6] *635:S 0.000269727
6 rx_data[6] *764:A 0.000439388
7 rx_data[6] *788:A 0.000199496
8 rx_data[6] *815:A 0.000105187
9 rx_data[10] rx_data[6] 8.61576e-05
10 rx_data[28] rx_data[6] 0.000439388
*RES
1 *815:X rx_data[6] 23.94 
*END

*D_NET *34 0.00243745
*CONN
*P rx_data[7] O
*I *816:X O *D sky130_fd_sc_hd__clkdlybuf4s25_1
*CAP
1 rx_data[7] 0.000749883
2 *816:X 0.000749883
3 rx_data[7] *715:A 0.000306986
4 rx_data[7] *721:A 9.45683e-05
5 rx_data[7] *774:A 0.000190031
6 rx_data[7] *778:A 5.28564e-05
7 rx_data[7] *187:8 0
8 rx_data[7] *225:14 0
9 rx_data[7] *225:20 0
10 rx_data[11] rx_data[7] 0.000170424
11 *750:A rx_data[7] 0.000122817
*RES
1 *816:X rx_data[7] 16.3413 
*END

*D_NET *35 0.00301849
*CONN
*P rx_data[8] O
*I *817:X O *D sky130_fd_sc_hd__clkdlybuf4s25_1
*CAP
1 rx_data[8] 0.00100692
2 *817:X 0.00100692
3 rx_data[8] *612:A0 0
4 rx_data[8] *612:S 0.000116636
5 rx_data[8] *634:S 8.97564e-05
6 rx_data[8] *661:CLK 0
7 rx_data[8] *661:D 0
8 rx_data[8] *743:A 0.000126643
9 rx_data[8] *767:A 0.000259237
10 rx_data[8] *810:A 8.42239e-05
11 rx_data[8] *817:A 0
12 rx_data[8] *129:97 0
13 rx_data[8] *132:18 6.1452e-05
14 rx_data[8] *235:16 9.34355e-06
15 rx_data[30] rx_data[8] 0.000257362
*RES
1 *817:X rx_data[8] 29.365 
*END

*D_NET *36 0.00260918
*CONN
*P rx_data[9] O
*I *818:X O *D sky130_fd_sc_hd__clkdlybuf4s25_1
*CAP
1 rx_data[9] 0.000606748
2 *818:X 0.000606748
3 rx_data[9] *631:S 0
4 rx_data[9] *749:A 5.08962e-05
5 rx_data[9] *781:A 0.00047221
6 rx_data[9] *818:A 0.000191228
7 rx_data[9] *225:88 2.96134e-05
8 rx_data[14] rx_data[9] 0.000238434
9 rx_data[27] rx_data[9] 0.0004133
*RES
1 *818:X rx_data[9] 13.2207 
*END

*D_NET *37 0.00183736
*CONN
*P rx_valid O
*I *819:X O *D sky130_fd_sc_hd__clkdlybuf4s25_1
*CAP
1 rx_valid 0.000912827
2 *819:X 0.000912827
3 rx_valid *777:A 0
4 rx_valid *136:12 1.17114e-05
*RES
1 *819:X rx_valid 6.26987 
*END

*D_NET *38 0.00312005
*CONN
*P tx_data[0] I
*I *761:A I *D sky130_fd_sc_hd__clkdlybuf4s25_1
*CAP
1 tx_data[0] 0.00124357
2 *761:A 0.00124357
3 *761:A *760:A 0.000235302
4 *761:A *770:A 0
5 *761:A *773:A 0.000235302
6 *761:A *188:12 0.000162311
*RES
1 tx_data[0] *761:A 23.2253 
*END
