*SPEF "ieee 1481-1999"
*DESIGN "htax"
*DATE "19:08:15 Friday May 15, 2026"
*VENDOR "The OpenROAD Project"
*PROGRAM "OpenROAD"
*VERSION "dcf36133a369abc8f3c5e5738cd4d82e4903c0e0"
*DESIGN_FLOW "NAME_SCOPE LOCAL" "PIN_CAP NONE"
*DIVIDER /
*DELIMITER :
*BUS_DELIMITER []
*T_UNIT 1 NS
*C_UNIT 1 PF
*R_UNIT 1 OHM
*L_UNIT 1 HENRY

*NAME_MAP
*3 clk
*4 rst_n
*5 rx_data[0]
*6 rx_data[10]
*7 rx_data[11]
*8 rx_data[12]
*9 rx_data[13]
*10 rx_data[14]
*11 rx_data[15]
*12 rx_data[16]
*13 rx_data[17]
*14 rx_data[18]
*15 rx_data[19]
*16 rx_data[1]
*17 rx_data[20]
*18 rx_data[21]
*19 rx_data[22]
*20 rx_data[23]
*21 rx_data[24]
*22 rx_data[25]
*23 rx_data[26]
*24 rx_data[27]
*25 rx_data[28]
*26 rx_data[29]
*27 rx_data[2]
*28 rx_data[30]
*29 rx_data[31]
*30 rx_data[3]
*31 rx_data[4]
*32 rx_data[5]
*33 rx_data[6]
*34 rx_data[7]
*35 rx_data[8]
*36 rx_data[9]
*37 rx_valid
*38 tx_data[0]
*39 tx_data[10]
*40 tx_data[11]
*41 tx_data[12]
*42 tx_data[13]
*43 tx_data[14]
*44 tx_data[15]
*45 tx_data[16]
*46 tx_data[17]
*47 tx_data[18]
*48 tx_data[19]
*49 tx_data[1]
*50 tx_data[20]
*51 tx_data[21]
*52 tx_data[22]
*53 tx_data[23]
*54 tx_data[24]
*55 tx_data[25]
*56 tx_data[26]
*57 tx_data[27]
*58 tx_data[28]
*59 tx_data[29]
*60 tx_data[2]
*61 tx_data[30]
*62 tx_data[31]
*63 tx_data[3]
*64 tx_data[4]
*65 tx_data[5]
*66 tx_data[6]
*67 tx_data[7]
*68 tx_data[8]
*69 tx_data[9]
*70 tx_ready
*71 tx_valid
*72 tx_vc[0]
*73 tx_vc[1]
*74 tx_vc[2]
*75 _000_
*76 _001_
*77 _002_
*78 _003_
*79 _004_
*80 _005_
*81 _006_
*82 _007_
*83 _008_
*84 _009_
*85 _010_
*86 _011_
*87 _012_
*88 _013_
*89 _014_
*90 _015_
*91 _016_
*92 _017_
*93 _018_
*94 _019_
*95 _020_
*96 _021_
*97 _022_
*98 _023_
*99 _024_
*100 _025_
*101 _026_
*102 _027_
*103 _028_
*104 _029_
*105 _030_
*106 _031_
*107 _032_
*108 _033_
*109 _034_
*110 _035_
*111 _036_
*112 _037_
*113 _038_
*114 _039_
*115 _040_
*116 _041_
*117 _042_
*118 _043_
*119 _044_
*120 _045_
*121 _046_
*122 _047_
*123 _048_
*124 _049_
*125 _050_
*126 _051_
*127 _052_
*128 _053_
*129 clknet_0_clk
*130 clknet_3_0__leaf_clk
*131 clknet_3_1__leaf_clk
*132 clknet_3_2__leaf_clk
*133 clknet_3_3__leaf_clk
*134 clknet_3_4__leaf_clk
*135 clknet_3_5__leaf_clk
*136 clknet_3_6__leaf_clk
*137 clknet_3_7__leaf_clk
*138 credit_count\[0\]
*139 credit_count\[1\]
*140 credit_count\[2\]
*141 credit_count\[3\]
*142 net1
*143 net10
*144 net100
*145 net101
*146 net102
*147 net103
*148 net104
*149 net105
*150 net106
*151 net107
*152 net108
*153 net109
*154 net11
*155 net110
*156 net111
*157 net112
*158 net113
*159 net114
*160 net12
*161 net13
*162 net14
*163 net15
*164 net16
*165 net17
*166 net18
*167 net19
*168 net2
*169 net20
*170 net21
*171 net22
*172 net23
*173 net24
*174 net25
*175 net26
*176 net27
*177 net28
*178 net29
*179 net3
*180 net30
*181 net31
*182 net32
*183 net33
*184 net34
*185 net35
*186 net36
*187 net37
*188 net38
*189 net39
*190 net4
*191 net40
*192 net41
*193 net42
*194 net43
*195 net44
*196 net45
*197 net46
*198 net47
*199 net48
*200 net49
*201 net5
*202 net50
*203 net51
*204 net52
*205 net53
*206 net54
*207 net55
*208 net56
*209 net57
*210 net58
*211 net59
*212 net6
*213 net60
*214 net61
*215 net62
*216 net63
*217 net64
*218 net65
*219 net66
*220 net67
*221 net68
*222 net69
*223 net7
*224 net70
*225 net71
*226 net72
*227 net73
*228 net74
*229 net75
*230 net76
*231 net77
*232 net78
*233 net79
*234 net8
*235 net80
*236 net81
*237 net82
*238 net83
*239 net84
*240 net85
*241 net86
*242 net87
*243 net88
*244 net89
*245 net9
*246 net90
*247 net91
*248 net92
*249 net93
*250 net94
*251 net95
*252 net96
*253 net97
*254 net98
*255 net99
*256 state
*257 FILLER_0_102
*258 FILLER_0_11
*259 FILLER_0_129
*260 FILLER_0_132
*261 FILLER_0_54
*262 FILLER_0_57
*263 FILLER_10_27
*264 FILLER_10_3
*265 FILLER_10_65
*266 FILLER_10_68
*267 FILLER_10_85
*268 FILLER_10_88
*269 FILLER_11_101
*270 FILLER_11_110
*271 FILLER_11_113
*272 FILLER_11_116
*273 FILLER_11_124
*274 FILLER_11_16
*275 FILLER_11_3
*276 FILLER_11_43
*277 FILLER_11_46
*278 FILLER_11_55
*279 FILLER_11_57
*280 FILLER_11_6
*281 FILLER_11_86
*282 FILLER_11_89
*283 FILLER_11_92
*284 FILLER_11_95
*285 FILLER_12_109
*286 FILLER_12_27
*287 FILLER_12_3
*288 FILLER_12_44
*289 FILLER_12_55
*290 FILLER_12_58
*291 FILLER_12_82
*292 FILLER_12_88
*293 FILLER_12_91
*294 FILLER_13_108
*295 FILLER_13_11
*296 FILLER_13_111
*297 FILLER_13_55
*298 FILLER_13_63
*299 FILLER_14_111
*300 FILLER_14_114
*301 FILLER_14_123
*302 FILLER_14_132
*303 FILLER_14_27
*304 FILLER_14_3
*305 FILLER_14_58
*306 FILLER_14_61
*307 FILLER_14_64
*308 FILLER_14_67
*309 FILLER_14_70
*310 FILLER_14_73
*311 FILLER_14_76
*312 FILLER_14_79
*313 FILLER_14_82
*314 FILLER_14_85
*315 FILLER_14_88
*316 FILLER_15_105
*317 FILLER_15_108
*318 FILLER_15_111
*319 FILLER_15_129
*320 FILLER_15_132
*321 FILLER_15_3
*322 FILLER_15_36
*323 FILLER_15_47
*324 FILLER_15_57
*325 FILLER_15_60
*326 FILLER_15_63
*327 FILLER_15_66
*328 FILLER_15_69
*329 FILLER_15_72
*330 FILLER_15_75
*331 FILLER_15_78
*332 FILLER_15_81
*333 FILLER_15_84
*334 FILLER_15_87
*335 FILLER_15_90
*336 FILLER_15_93
*337 FILLER_16_128
*338 FILLER_16_131
*339 FILLER_16_24
*340 FILLER_16_27
*341 FILLER_16_3
*342 FILLER_16_6
*343 FILLER_16_69
*344 FILLER_16_72
*345 FILLER_16_75
*346 FILLER_16_78
*347 FILLER_16_81
*348 FILLER_16_85
*349 FILLER_16_88
*350 FILLER_16_91
*351 FILLER_16_94
*352 FILLER_16_97
*353 FILLER_17_113
*354 FILLER_17_116
*355 FILLER_17_128
*356 FILLER_17_131
*357 FILLER_17_26
*358 FILLER_17_3
*359 FILLER_17_44
*360 FILLER_17_47
*361 FILLER_17_6
*362 FILLER_17_78
*363 FILLER_17_81
*364 FILLER_17_84
*365 FILLER_17_87
*366 FILLER_17_9
*367 FILLER_18_16
*368 FILLER_18_19
*369 FILLER_18_3
*370 FILLER_18_37
*371 FILLER_18_48
*372 FILLER_18_57
*373 FILLER_18_6
*374 FILLER_18_69
*375 FILLER_18_79
*376 FILLER_18_82
*377 FILLER_18_85
*378 FILLER_18_88
*379 FILLER_19_27
*380 FILLER_19_3
*381 FILLER_19_30
*382 FILLER_19_33
*383 FILLER_19_55
*384 FILLER_19_57
*385 FILLER_19_60
*386 FILLER_19_91
*387 FILLER_19_94
*388 FILLER_1_111
*389 FILLER_1_113
*390 FILLER_1_116
*391 FILLER_1_128
*392 FILLER_1_131
*393 FILLER_1_16
*394 FILLER_1_19
*395 FILLER_1_3
*396 FILLER_1_30
*397 FILLER_1_33
*398 FILLER_1_57
*399 FILLER_1_6
*400 FILLER_1_76
*401 FILLER_1_99
*402 FILLER_20_127
*403 FILLER_20_130
*404 FILLER_20_133
*405 FILLER_20_27
*406 FILLER_20_3
*407 FILLER_20_56
*408 FILLER_20_79
*409 FILLER_20_82
*410 FILLER_21_105
*411 FILLER_21_108
*412 FILLER_21_111
*413 FILLER_21_113
*414 FILLER_21_116
*415 FILLER_21_128
*416 FILLER_21_131
*417 FILLER_21_16
*418 FILLER_21_3
*419 FILLER_21_47
*420 FILLER_21_57
*421 FILLER_21_6
*422 FILLER_21_60
*423 FILLER_21_63
*424 FILLER_21_73
*425 FILLER_21_84
*426 FILLER_21_87
*427 FILLER_22_111
*428 FILLER_22_113
*429 FILLER_22_124
*430 FILLER_22_27
*431 FILLER_22_29
*432 FILLER_22_32
*433 FILLER_22_50
*434 FILLER_22_53
*435 FILLER_22_57
*436 FILLER_2_118
*437 FILLER_2_132
*438 FILLER_2_24
*439 FILLER_2_27
*440 FILLER_2_29
*441 FILLER_2_32
*442 FILLER_2_94
*443 FILLER_3_111
*444 FILLER_3_3
*445 FILLER_3_37
*446 FILLER_3_57
*447 FILLER_3_6
*448 FILLER_3_67
*449 FILLER_4_112
*450 FILLER_4_27
*451 FILLER_4_3
*452 FILLER_4_37
*453 FILLER_4_79
*454 FILLER_4_82
*455 FILLER_4_85
*456 FILLER_5_113
*457 FILLER_5_116
*458 FILLER_5_47
*459 FILLER_5_57
*460 FILLER_5_91
*461 FILLER_5_94
*462 FILLER_6_117
*463 FILLER_6_24
*464 FILLER_6_27
*465 FILLER_6_29
*466 FILLER_6_3
*467 FILLER_6_32
*468 FILLER_6_50
*469 FILLER_6_6
*470 FILLER_6_80
*471 FILLER_6_83
*472 FILLER_6_93
*473 FILLER_7_116
*474 FILLER_7_3
*475 FILLER_7_34
*476 FILLER_7_57
*477 FILLER_7_6
*478 FILLER_7_80
*479 FILLER_7_83
*480 FILLER_8_110
*481 FILLER_8_14
*482 FILLER_8_17
*483 FILLER_8_27
*484 FILLER_8_3
*485 FILLER_8_38
*486 FILLER_8_49
*487 FILLER_8_52
*488 FILLER_8_83
*489 FILLER_8_85
*490 FILLER_8_88
*491 FILLER_9_106
*492 FILLER_9_109
*493 FILLER_9_113
*494 FILLER_9_116
*495 FILLER_9_16
*496 FILLER_9_27
*497 FILLER_9_3
*498 FILLER_9_49
*499 FILLER_9_6
*500 FILLER_9_81
*501 FILLER_9_84
*502 PHY_EDGE_ROW_0_Left_23
*503 PHY_EDGE_ROW_0_Right_0
*504 PHY_EDGE_ROW_10_Left_33
*505 PHY_EDGE_ROW_10_Right_10
*506 PHY_EDGE_ROW_11_Left_34
*507 PHY_EDGE_ROW_11_Right_11
*508 PHY_EDGE_ROW_12_Left_35
*509 PHY_EDGE_ROW_12_Right_12
*510 PHY_EDGE_ROW_13_Left_36
*511 PHY_EDGE_ROW_13_Right_13
*512 PHY_EDGE_ROW_14_Left_37
*513 PHY_EDGE_ROW_14_Right_14
*514 PHY_EDGE_ROW_15_Left_38
*515 PHY_EDGE_ROW_15_Right_15
*516 PHY_EDGE_ROW_16_Left_39
*517 PHY_EDGE_ROW_16_Right_16
*518 PHY_EDGE_ROW_17_Left_40
*519 PHY_EDGE_ROW_17_Right_17
*520 PHY_EDGE_ROW_18_Left_41
*521 PHY_EDGE_ROW_18_Right_18
*522 PHY_EDGE_ROW_19_Left_42
*523 PHY_EDGE_ROW_19_Right_19
*524 PHY_EDGE_ROW_1_Left_24
*525 PHY_EDGE_ROW_1_Right_1
*526 PHY_EDGE_ROW_20_Left_43
*527 PHY_EDGE_ROW_20_Right_20
*528 PHY_EDGE_ROW_21_Left_44
*529 PHY_EDGE_ROW_21_Right_21
*530 PHY_EDGE_ROW_22_Left_45
*531 PHY_EDGE_ROW_22_Right_22
*532 PHY_EDGE_ROW_2_Left_25
*533 PHY_EDGE_ROW_2_Right_2
*534 PHY_EDGE_ROW_3_Left_26
*535 PHY_EDGE_ROW_3_Right_3
*536 PHY_EDGE_ROW_4_Left_27
*537 PHY_EDGE_ROW_4_Right_4
*538 PHY_EDGE_ROW_5_Left_28
*539 PHY_EDGE_ROW_5_Right_5
*540 PHY_EDGE_ROW_6_Left_29
*541 PHY_EDGE_ROW_6_Right_6
*542 PHY_EDGE_ROW_7_Left_30
*543 PHY_EDGE_ROW_7_Right_7
*544 PHY_EDGE_ROW_8_Left_31
*545 PHY_EDGE_ROW_8_Right_8
*546 PHY_EDGE_ROW_9_Left_32
*547 PHY_EDGE_ROW_9_Right_9
*548 TAP_TAPCELL_ROW_0_46
*549 TAP_TAPCELL_ROW_0_47
*550 TAP_TAPCELL_ROW_0_48
*551 TAP_TAPCELL_ROW_0_49
*552 TAP_TAPCELL_ROW_10_68
*553 TAP_TAPCELL_ROW_10_69
*554 TAP_TAPCELL_ROW_11_70
*555 TAP_TAPCELL_ROW_11_71
*556 TAP_TAPCELL_ROW_12_72
*557 TAP_TAPCELL_ROW_12_73
*558 TAP_TAPCELL_ROW_13_74
*559 TAP_TAPCELL_ROW_13_75
*560 TAP_TAPCELL_ROW_14_76
*561 TAP_TAPCELL_ROW_14_77
*562 TAP_TAPCELL_ROW_15_78
*563 TAP_TAPCELL_ROW_15_79
*564 TAP_TAPCELL_ROW_16_80
*565 TAP_TAPCELL_ROW_16_81
*566 TAP_TAPCELL_ROW_17_82
*567 TAP_TAPCELL_ROW_17_83
*568 TAP_TAPCELL_ROW_18_84
*569 TAP_TAPCELL_ROW_18_85
*570 TAP_TAPCELL_ROW_19_86
*571 TAP_TAPCELL_ROW_19_87
*572 TAP_TAPCELL_ROW_1_50
*573 TAP_TAPCELL_ROW_1_51
*574 TAP_TAPCELL_ROW_20_88
*575 TAP_TAPCELL_ROW_20_89
*576 TAP_TAPCELL_ROW_21_90
*577 TAP_TAPCELL_ROW_21_91
*578 TAP_TAPCELL_ROW_22_92
*579 TAP_TAPCELL_ROW_22_93
*580 TAP_TAPCELL_ROW_22_94
*581 TAP_TAPCELL_ROW_22_95
*582 TAP_TAPCELL_ROW_2_52
*583 TAP_TAPCELL_ROW_2_53
*584 TAP_TAPCELL_ROW_3_54
*585 TAP_TAPCELL_ROW_3_55
*586 TAP_TAPCELL_ROW_4_56
*587 TAP_TAPCELL_ROW_4_57
*588 TAP_TAPCELL_ROW_5_58
*589 TAP_TAPCELL_ROW_5_59
*590 TAP_TAPCELL_ROW_6_60
*591 TAP_TAPCELL_ROW_6_61
*592 TAP_TAPCELL_ROW_7_62
*593 TAP_TAPCELL_ROW_7_63
*594 TAP_TAPCELL_ROW_8_64
*595 TAP_TAPCELL_ROW_8_65
*596 TAP_TAPCELL_ROW_9_66
*597 TAP_TAPCELL_ROW_9_67
*598 _054_
*599 _055_
*600 _056_
*601 _057_
*602 _058_
*603 _059_
*604 _060_
*605 _061_
*606 _062_
*607 _063_
*608 _064_
*609 _065_
*610 _066_
*611 _067_
*612 _068_
*613 _069_
*614 _070_
*615 _071_
*616 _072_
*617 _073_
*618 _074_
*619 _075_
*620 _076_
*621 _077_
*622 _078_
*623 _079_
*624 _080_
*625 _081_
*626 _082_
*627 _083_
*628 _084_
*629 _085_
*630 _086_
*631 _087_
*632 _088_
*633 _089_
*634 _090_
*635 _091_
*636 _092_
*637 _093_
*638 _094_
*639 _095_
*640 _096_
*641 _097_
*642 _098_
*643 _099_
*644 _100_
*645 _101_
*646 _102_
*647 _103_
*648 _104_
*649 _105_
*650 _106_
*651 _107_
*652 _108_
*653 _109_
*654 _110_
*655 _111_
*656 _112_
*657 _113_
*658 _114_
*659 _115_
*660 _116_
*661 _117_
*662 _118_
*663 _119_
*664 _120_
*665 _121_
*666 _122_
*667 _123_
*668 _124_
*669 _125_
*670 _126_
*671 _127_
*672 _128_
*673 _129_
*674 _130_
*675 _131_
*676 _132_
*677 _133_
*678 _134_
*679 _135_
*680 _136_
*681 _137_
*682 _138_
*683 _139_
*684 _140_
*685 _141_
*686 _142_
*687 _143_
*688 _144_
*689 _145_
*690 _146_
*691 clkbuf_0_clk
*692 clkbuf_3_0__f_clk
*693 clkbuf_3_1__f_clk
*694 clkbuf_3_2__f_clk
*695 clkbuf_3_3__f_clk
*696 clkbuf_3_4__f_clk
*697 clkbuf_3_5__f_clk
*698 clkbuf_3_6__f_clk
*699 clkbuf_3_7__f_clk
*700 clkload0
*701 clkload1
*702 clkload2
*703 clkload3
*704 clkload4
*705 clkload5
*706 clkload6
*707 fanout69
*708 fanout70
*709 fanout71
*710 fanout72
*711 fanout73
*712 fanout75
*713 fanout77
*714 fanout79
*715 fanout80
*716 hold100
*717 hold101
*718 hold102
*719 hold103
*720 hold104
*721 hold105
*722 hold106
*723 hold107
*724 hold108
*725 hold109
*726 hold110
*727 hold111
*728 hold112
*729 hold113
*730 hold114
*731 hold81
*732 hold82
*733 hold83
*734 hold84
*735 hold85
*736 hold86
*737 hold87
*738 hold88
*739 hold89
*740 hold90
*741 hold91
*742 hold92
*743 hold93
*744 hold94
*745 hold95
*746 hold96
*747 hold97
*748 hold98
*749 hold99
*750 input1
*751 input10
*752 input11
*753 input12
*754 input13
*755 input14
*756 input15
*757 input16
*758 input17
*759 input18
*760 input19
*761 input2
*762 input20
*763 input21
*764 input22
*765 input23
*766 input24
*767 input25
*768 input26
*769 input27
*770 input28
*771 input29
*772 input3
*773 input30
*774 input31
*775 input32
*776 input33
*777 input34
*778 input4
*779 input5
*780 input6
*781 input7
*782 input8
*783 input9
*784 load_slew74
*785 load_slew76
*786 load_slew78
*787 output35
*788 output36
*789 output37
*790 output38
*791 output39
*792 output40
*793 output41
*794 output42
*795 output43
*796 output44
*797 output45
*798 output46
*799 output47
*800 output48
*801 output49
*802 output50
*803 output51
*804 output52
*805 output53
*806 output54
*807 output55
*808 output56
*809 output57
*810 output58
*811 output59
*812 output60
*813 output61
*814 output62
*815 output63
*816 output64
*817 output65
*818 output66
*819 output67
*820 output68

*PORTS
clk I
rst_n I
rx_data[0] O
rx_data[10] O
rx_data[11] O
rx_data[12] O
rx_data[13] O
rx_data[14] O
rx_data[15] O
rx_data[16] O
rx_data[17] O
rx_data[18] O
rx_data[19] O
rx_data[1] O
rx_data[20] O
rx_data[21] O
rx_data[22] O
rx_data[23] O
rx_data[24] O
rx_data[25] O
rx_data[26] O
rx_data[27] O
rx_data[28] O
rx_data[29] O
rx_data[2] O
rx_data[30] O
rx_data[31] O
rx_data[3] O
rx_data[4] O
rx_data[5] O
rx_data[6] O
rx_data[7] O
rx_data[8] O
rx_data[9] O
rx_valid O
tx_data[0] I
tx_data[10] I
tx_data[11] I
tx_data[12] I
tx_data[13] I
tx_data[14] I
tx_data[15] I
tx_data[16] I
tx_data[17] I
tx_data[18] I
tx_data[19] I
tx_data[1] I
tx_data[20] I
tx_data[21] I
tx_data[22] I
tx_data[23] I
tx_data[24] I
tx_data[25] I
tx_data[26] I
tx_data[27] I
tx_data[28] I
tx_data[29] I
tx_data[2] I
tx_data[30] I
tx_data[31] I
tx_data[3] I
tx_data[4] I
tx_data[5] I
tx_data[6] I
tx_data[7] I
tx_data[8] I
tx_data[9] I
tx_ready O
tx_valid I
tx_vc[0] I
tx_vc[1] I
tx_vc[2] I

*D_NET *3 0.00805748
*CONN
*P clk I
*I *691:A I *D sky130_fd_sc_hd__clkbuf_16
*CAP
1 clk 0.00353935
2 *691:A 0
3 *3:10 0.00353935
4 *3:10 rx_data[18] 0.000329223
5 *3:10 rx_data[19] 0
6 *3:10 *674:CLK 0.000129081
7 *3:10 *21:8 0
8 *3:10 *97:10 5.98063e-05
9 *3:10 *112:10 0
10 *3:10 *203:28 0.000122855
11 *3:10 *214:24 8.86279e-06
12 *3:10 *226:46 0
13 *3:10 *230:10 4.81587e-05
14 *3:10 *230:20 0.000247183
15 *3:10 *230:28 3.3616e-05
16 *3:10 *235:53 0
*RES
1 clk *3:10 33.8004 
2 *3:10 *691:A 38 
*END

*D_NET *4 0.00152177
*CONN
*P rst_n I
*I *750:A I *D sky130_fd_sc_hd__clkdlybuf4s25_1
*CAP
1 rst_n 0.000646265
2 *750:A 0
3 *4:13 0.000646265
4 *4:13 rx_data[11] 0
5 *4:13 *7:8 0
6 *4:13 *34:8 0.000145163
7 *4:13 *40:11 8.40765e-05
*RES
1 rst_n *4:13 35.8009 
2 *4:13 *750:A 23 
*END

*D_NET *5 0.00387873
*CONN
*P rx_data[0] O
*I *787:X O *D sky130_fd_sc_hd__clkdlybuf4s25_1
*CAP
1 rx_data[0] 0.000944739
2 *787:X 0.000259236
3 *5:8 0.00120397
4 rx_data[0] rx_data[23] 3.39307e-05
5 rx_data[0] rx_data[31] 0.000273834
6 rx_data[0] *676:RESET_B 0
7 rx_data[0] *53:11 9.04018e-05
8 rx_data[0] *62:15 0
9 rx_data[0] *179:8 0.000493916
10 rx_data[0] *194:22 4.08537e-05
11 rx_data[0] *207:8 0.000296554
12 rx_data[0] *222:16 2.60152e-05
13 rx_data[0] *222:24 4.54033e-05
14 rx_data[0] *224:36 4.08641e-05
15 *5:8 *733:A 2.64616e-05
16 *5:8 *787:A 2.93431e-05
17 *5:8 *201:6 7.32069e-05
*RES
1 *787:X *5:8 41.48 
2 *5:8 rx_data[0] 23.7593 
*END

*D_NET *6 0.00422545
*CONN
*P rx_data[10] O
*I *788:X O *D sky130_fd_sc_hd__clkdlybuf4s25_1
*CAP
1 rx_data[10] 0.000418672
2 *788:X 0.000792974
3 *6:10 0.00121165
4 rx_data[10] *39:11 0.00035626
5 rx_data[10] *64:9 0.000155678
6 *6:10 *770:A 2.93747e-05
7 *6:10 *30:8 0.000317553
8 *6:10 *33:8 8.23392e-05
9 *6:10 *143:10 5.50049e-05
10 *6:10 *177:8 0.000747994
11 *6:10 *216:22 5.79559e-05
*RES
1 *788:X *6:10 40.4621 
2 *6:10 rx_data[10] 28.4117 
*END

*D_NET *7 0.00354269
*CONN
*P rx_data[11] O
*I *789:X O *D sky130_fd_sc_hd__clkdlybuf4s25_1
*CAP
1 rx_data[11] 0.000622332
2 *789:X 0.000419446
3 *7:8 0.00104178
4 rx_data[11] rx_data[7] 0.000187555
5 rx_data[11] *67:13 0.000930209
6 *7:8 *789:A 0.000162386
7 *7:8 *67:13 0.000178986
8 *4:13 rx_data[11] 0
9 *4:13 *7:8 0
*RES
1 *789:X *7:8 45.7679 
2 *7:8 rx_data[11] 23.3815 
*END

*D_NET *8 0.00400963
*CONN
*P rx_data[12] O
*I *790:X O *D sky130_fd_sc_hd__clkdlybuf4s25_1
*CAP
1 rx_data[12] 0.000787744
2 *790:X 0.000614549
3 *8:12 0.00140229
4 rx_data[12] rx_data[3] 0
5 rx_data[12] *665:CLK 0
6 rx_data[12] *39:11 0
7 rx_data[12] *41:11 0.00054201
8 rx_data[12] *148:10 8.57577e-05
9 rx_data[12] *155:18 0.000134269
10 rx_data[12] *213:24 0
11 *8:12 *629:A1 2.00768e-05
12 *8:12 *222:89 0.000422929
*RES
1 *790:X *8:12 48.7921 
2 *8:12 rx_data[12] 16.0311 
*END

*D_NET *9 0.00429573
*CONN
*P rx_data[13] O
*I *791:X O *D sky130_fd_sc_hd__clkdlybuf4s25_1
*CAP
1 rx_data[13] 0.000465326
2 *791:X 0.000202803
3 *9:16 0.0011144
4 *9:10 0.000851879
5 rx_data[13] rx_data[21] 0
6 rx_data[13] *45:11 0
7 *9:10 *606:A0 8.5521e-05
8 *9:10 *59:11 0.000233359
9 *9:16 *12:16 0.00108798
10 *9:16 *42:13 0.000254456
*RES
1 *791:X *9:10 42.785 
2 *9:10 *9:16 47.2964 
3 *9:16 rx_data[13] 10.4607 
*END

*D_NET *10 0.00368332
*CONN
*P rx_data[14] O
*I *792:X O *D sky130_fd_sc_hd__clkdlybuf4s25_1
*CAP
1 rx_data[14] 0.000539494
2 *792:X 0.000560723
3 *10:8 0.00110022
4 rx_data[14] rx_data[27] 0.000504084
5 rx_data[14] *36:8 0.000285802
6 rx_data[14] *57:11 1.96267e-05
7 rx_data[14] *219:12 0.000288441
8 *10:8 *618:S 5.3304e-05
9 *10:8 *191:12 0.000331632
*RES
1 *792:X *10:8 48.6264 
2 *10:8 rx_data[14] 13.753 
*END

*D_NET *11 0.0038005
*CONN
*P rx_data[15] O
*I *793:X O *D sky130_fd_sc_hd__clkdlybuf4s25_1
*CAP
1 rx_data[15] 0.00110276
2 *793:X 0.000295638
3 *11:8 0.00139839
4 rx_data[15] *44:13 0
5 rx_data[15] *57:11 0
6 rx_data[15] *137:12 0
7 rx_data[15] *152:10 0.000616965
8 rx_data[15] *170:8 0.00037898
9 rx_data[15] *192:20 7.76364e-06
10 rx_data[15] *250:10 0
*RES
1 *793:X *11:8 42.9093 
2 *11:8 rx_data[15] 26.6593 
*END

*D_NET *12 0.00504006
*CONN
*P rx_data[16] O
*I *794:X O *D sky130_fd_sc_hd__clkdlybuf4s25_1
*CAP
1 rx_data[16] 0.000480752
2 *794:X 0.000170421
3 *12:16 0.00104324
4 *12:10 0.000732912
5 rx_data[16] *44:13 0
6 rx_data[16] *45:11 0
7 *12:10 rx_data[29] 0.00032067
8 *12:10 rx_data[2] 0.000318429
9 *12:10 *697:A 5.50106e-05
10 *12:16 *42:13 0.00083064
11 *9:16 *12:16 0.00108798
*RES
1 *794:X *12:10 42.9921 
2 *12:10 *12:16 46.82 
3 *12:16 rx_data[16] 10.8129 
*END

*D_NET *13 0.00866712
*CONN
*P rx_data[17] O
*I *795:X O *D sky130_fd_sc_hd__clkdlybuf4s25_1
*CAP
1 rx_data[17] 0.00364615
2 *795:X 0.000332685
3 *13:14 0.00397883
4 rx_data[17] rx_data[31] 0.000223595
5 rx_data[17] *46:9 0.000277331
6 *13:14 rx_data[24] 0
7 *13:14 *52:15 0.000124258
8 *13:14 *129:41 9.86551e-06
9 *13:14 *203:28 2.11066e-05
10 *13:14 *211:33 5.3304e-05
*RES
1 *795:X *13:14 47.6425 
2 *13:14 rx_data[17] 38.755 
*END

*D_NET *14 0.00365938
*CONN
*P rx_data[18] O
*I *796:X O *D sky130_fd_sc_hd__clkdlybuf4s25_1
*CAP
1 rx_data[18] 0.000257104
2 *796:X 0.000772147
3 *14:6 0.00102925
4 rx_data[18] rx_data[26] 0.000618516
5 rx_data[18] rx_data[5] 6.43108e-05
6 rx_data[18] *47:15 0.000188634
7 *14:6 *56:13 0.000400198
8 *3:10 rx_data[18] 0.000329223
*RES
1 *796:X *14:6 36.0086 
2 *14:6 rx_data[18] 28.3258 
*END

*D_NET *15 0.00377396
*CONN
*P rx_data[19] O
*I *797:X O *D sky130_fd_sc_hd__clkdlybuf4s25_1
*CAP
1 rx_data[19] 0.000962233
2 *797:X 0.000166952
3 *15:10 0.00112918
4 rx_data[19] rx_data[5] 0.000379483
5 rx_data[19] *49:15 0
6 rx_data[19] *64:7 0
7 *15:10 *797:A 2.18506e-05
8 *15:10 *23:8 4.56101e-05
9 *15:10 *145:6 0.000613258
10 *15:10 *205:33 0.000447179
11 *15:10 *224:106 8.21456e-06
12 *3:10 rx_data[19] 0
*RES
1 *797:X *15:10 45.1361 
2 *15:10 rx_data[19] 10.9344 
*END

*D_NET *16 0.00294922
*CONN
*P rx_data[1] O
*I *798:X O *D sky130_fd_sc_hd__clkdlybuf4s25_1
*CAP
1 rx_data[1] 0.000891178
2 *798:X 5.78804e-05
3 *16:10 0.000949058
4 rx_data[1] rx_data[22] 0
5 rx_data[1] rx_data[24] 0.000910871
6 rx_data[1] *52:15 0
7 *16:10 *177:14 9.66434e-05
8 *16:10 *203:8 4.35909e-05
*RES
1 *798:X *16:10 47.3775 
2 *16:10 rx_data[1] 3.36373 
*END

*D_NET *17 0.00168696
*CONN
*P rx_data[20] O
*I *799:X O *D sky130_fd_sc_hd__clkdlybuf4s25_1
*CAP
1 rx_data[20] 0.000376588
2 *799:X 0.000134577
3 *17:8 0.000511166
4 rx_data[20] *50:13 0.000481806
5 *17:8 *61:15 0.000182826
*RES
1 *799:X *17:8 40.0507 
2 *17:8 rx_data[20] 11.7243 
*END

*D_NET *18 0.00479941
*CONN
*P rx_data[21] O
*I *800:X O *D sky130_fd_sc_hd__clkdlybuf4s25_1
*CAP
1 rx_data[21] 0.001198
2 *800:X 0.000787226
3 *18:8 0.00198522
4 rx_data[21] *722:A 0
5 rx_data[21] *42:7 0.00045838
6 rx_data[21] *45:11 0
7 rx_data[21] *51:13 0
8 rx_data[21] *89:8 0
9 rx_data[21] *163:10 0
10 rx_data[21] *193:10 0
11 rx_data[21] *199:24 0
12 rx_data[21] *230:28 0
13 rx_data[21] *247:8 2.5415e-05
14 *18:8 *674:D 5.50049e-05
15 *18:8 *674:RESET_B 9.18694e-05
16 *18:8 *199:8 0.000198289
17 rx_data[13] rx_data[21] 0
*RES
1 *800:X *18:8 48.6264 
2 *18:8 rx_data[21] 26.3071 
*END

*D_NET *19 0.00324535
*CONN
*P rx_data[22] O
*I *801:X O *D sky130_fd_sc_hd__clkdlybuf4s25_1
*CAP
1 rx_data[22] 0.000958203
2 *801:X 4.96422e-05
3 *19:8 0.00100784
4 rx_data[22] rx_data[3] 0.000135156
5 rx_data[22] *52:15 0.000486009
6 rx_data[22] *63:15 3.13864e-05
7 rx_data[22] *64:9 0
8 rx_data[22] *98:10 0.000109739
9 rx_data[22] *101:10 6.20474e-05
10 rx_data[22] *131:59 0.000266639
11 rx_data[22] *148:10 2.34077e-05
12 rx_data[22] *160:12 0
13 rx_data[22] *222:95 0
14 *19:8 *148:10 3.26241e-05
15 *19:8 *204:16 8.26478e-05
16 rx_data[1] rx_data[22] 0
*RES
1 *801:X *19:8 39.5743 
2 *19:8 rx_data[22] 24.1391 
*END

*D_NET *20 0.0034767
*CONN
*P rx_data[23] O
*I *802:X O *D sky130_fd_sc_hd__clkdlybuf4s25_1
*CAP
1 rx_data[23] 0.000638796
2 *802:X 0.000318425
3 *20:8 0.000957221
4 rx_data[23] rx_data[31] 0.000270014
5 rx_data[23] *676:RESET_B 0.000135547
6 rx_data[23] *58:13 0.000473677
7 rx_data[23] *194:22 8.4047e-05
8 rx_data[23] *207:8 0.000167402
9 rx_data[23] *211:12 0.000110195
10 rx_data[23] *224:30 0.000145609
11 *20:8 *802:A 5.3304e-05
12 *20:8 *165:18 2.69859e-05
13 *20:8 *227:8 6.15432e-05
14 rx_data[0] rx_data[23] 3.39307e-05
*RES
1 *802:X *20:8 41.9564 
2 *20:8 rx_data[23] 20.1757 
*END

*D_NET *21 0.00704994
*CONN
*P rx_data[24] O
*I *803:X O *D sky130_fd_sc_hd__clkdlybuf4s25_1
*CAP
1 rx_data[24] 0.00225532
2 *803:X 0.000409971
3 *21:8 0.00266529
4 rx_data[24] *49:15 0
5 rx_data[24] *54:11 0.00070499
6 *21:8 *708:A 0
7 *21:8 *112:10 4.73652e-05
8 *21:8 *203:28 0
9 *21:8 *211:33 5.61311e-05
10 *21:8 *226:20 0
11 rx_data[1] rx_data[24] 0.000910871
12 *3:10 *21:8 0
13 *13:14 rx_data[24] 0
*RES
1 *803:X *21:8 46.0682 
2 *21:8 rx_data[24] 14.5408 
*END

*D_NET *22 0.00534594
*CONN
*P rx_data[25] O
*I *804:X O *D sky130_fd_sc_hd__clkdlybuf4s25_1
*CAP
1 rx_data[25] 0.0018455
2 *804:X 0.000183
3 *22:12 0.0020285
4 rx_data[25] *629:A1 0.000103645
5 rx_data[25] *41:11 0
6 rx_data[25] *55:11 0.000850882
7 rx_data[25] *222:89 0.000170252
8 *22:12 *130:81 6.78148e-05
9 *22:12 *168:10 8.50457e-05
10 *22:12 *244:10 1.12919e-05
*RES
1 *804:X *22:12 49.0554 
2 *22:12 rx_data[25] 5.2752 
*END

*D_NET *23 0.00722949
*CONN
*P rx_data[26] O
*I *805:X O *D sky130_fd_sc_hd__clkdlybuf4s25_1
*CAP
1 rx_data[26] 0.0009023
2 *805:X 0.00106415
3 *23:8 0.00196645
4 rx_data[26] rx_data[5] 6.71555e-05
5 rx_data[26] *609:A0 5.97178e-05
6 rx_data[26] *609:A1 5.3304e-05
7 rx_data[26] *740:A 9.84794e-05
8 rx_data[26] *47:15 0.000360153
9 rx_data[26] *56:13 0
10 rx_data[26] *145:6 0.000399297
11 *23:8 *717:A 0.000500366
12 *23:8 *797:A 0.000185434
13 *23:8 *81:10 0.00039759
14 *23:8 *145:6 2.25419e-05
15 *23:8 *205:33 0.000439046
16 *23:8 *209:31 4.93812e-05
17 rx_data[18] rx_data[26] 0.000618516
18 *15:10 *23:8 4.56101e-05
*RES
1 *805:X *23:8 47.215 
2 *23:8 rx_data[26] 42.1393 
*END

*D_NET *24 0.00323898
*CONN
*P rx_data[27] O
*I *806:X O *D sky130_fd_sc_hd__clkdlybuf4s25_1
*CAP
1 rx_data[27] 0.000251535
2 *806:X 0.000254412
3 *24:8 0.000505947
4 rx_data[27] *57:11 0.000490463
5 *24:8 *806:A 0
6 *24:8 *36:8 0.00049538
7 *24:8 *219:12 2.8241e-05
8 *24:8 *225:67 0.00035793
9 *24:8 *225:88 0.000350984
10 rx_data[14] rx_data[27] 0.000504084
*RES
1 *806:X *24:8 47.4768 
2 *24:8 rx_data[27] 9.7388 
*END

*D_NET *25 0.0021247
*CONN
*P rx_data[28] O
*I *807:X O *D sky130_fd_sc_hd__clkdlybuf4s25_1
*CAP
1 rx_data[28] 0.000383371
2 *807:X 0.000383359
3 *25:8 0.00076673
4 rx_data[28] rx_data[6] 0.000480795
5 rx_data[28] *53:17 0
6 *25:8 *635:A0 2.93845e-05
7 *25:8 *747:A 1.76557e-05
8 *25:8 *807:A 2.93747e-05
9 *25:8 *216:22 3.40295e-05
*RES
1 *807:X *25:8 43.3857 
2 *25:8 rx_data[28] 11.7243 
*END

*D_NET *26 0.00540179
*CONN
*P rx_data[29] O
*I *808:X O *D sky130_fd_sc_hd__clkdlybuf4s25_1
*CAP
1 rx_data[29] 0.000878209
2 *808:X 0.000241731
3 *26:8 0.00111994
4 rx_data[29] rx_data[2] 0.000967077
5 rx_data[29] *606:S 0.000812596
6 rx_data[29] *808:A 0
7 rx_data[29] *60:13 1.70765e-05
8 rx_data[29] *224:143 8.30566e-06
9 rx_data[29] *226:60 0.00040889
10 *26:8 *27:8 0.00010018
11 *26:8 *205:33 0.000527112
12 *12:10 rx_data[29] 0.00032067
*RES
1 *808:X *26:8 43.8621 
2 *26:8 rx_data[29] 29.4764 
*END

*D_NET *27 0.00407872
*CONN
*P rx_data[2] O
*I *809:X O *D sky130_fd_sc_hd__clkdlybuf4s25_1
*CAP
1 rx_data[2] 0.000970355
2 *809:X 6.52773e-05
3 *27:8 0.00103563
4 rx_data[2] *655:CLK 0
5 rx_data[2] *674:CLK 0
6 rx_data[2] *808:A 0.000117249
7 rx_data[2] *78:10 0.000459657
8 rx_data[2] *208:8 4.48644e-05
9 rx_data[2] *235:53 0
10 rx_data[29] rx_data[2] 0.000967077
11 *12:10 rx_data[2] 0.000318429
12 *26:8 *27:8 0.00010018
*RES
1 *809:X *27:8 39.0979 
2 *27:8 rx_data[2] 29.1243 
*END

*D_NET *28 0.00323542
*CONN
*P rx_data[30] O
*I *810:X O *D sky130_fd_sc_hd__clkdlybuf4s25_1
*CAP
1 rx_data[30] 0.000611745
2 *810:X 0.000547028
3 *28:12 0.00115877
4 rx_data[30] rx_data[8] 0.000282233
5 rx_data[30] *634:S 5.66129e-05
6 rx_data[30] *35:14 0
7 rx_data[30] *61:15 0
8 rx_data[30] *68:9 0
9 *28:12 *612:S 6.25741e-05
10 *28:12 *634:S 2.90981e-05
11 *28:12 *810:A 0.000272377
12 *28:12 *106:10 0
13 *28:12 *132:24 0.000100561
14 *28:12 *186:33 5.50049e-05
15 *28:12 *251:10 5.94125e-05
*RES
1 *810:X *28:12 49.6518 
2 *28:12 rx_data[30] 14.2204 
*END

*D_NET *29 0.00710583
*CONN
*P rx_data[31] O
*I *811:X O *D sky130_fd_sc_hd__clkdlybuf4s25_1
*CAP
1 rx_data[31] 0.00280401
2 *811:X 0.000199243
3 *29:12 0.00300325
4 *29:12 *52:15 1.13839e-05
5 *29:12 *66:11 4.93791e-05
6 *29:12 *129:55 0.000133876
7 *29:12 *203:28 0.000137249
8 *29:12 *211:33 0
9 rx_data[0] rx_data[31] 0.000273834
10 rx_data[17] rx_data[31] 0.000223595
11 rx_data[23] rx_data[31] 0.000270014
*RES
1 *811:X *29:12 49.9414 
2 *29:12 rx_data[31] 36.1043 
*END

*D_NET *30 0.00597167
*CONN
*P rx_data[3] O
*I *812:X O *D sky130_fd_sc_hd__clkdlybuf4s25_1
*CAP
1 rx_data[3] 0.000883702
2 *812:X 0.000199822
3 *30:8 0.00108352
4 rx_data[3] *663:CLK 0.000277129
5 rx_data[3] *665:CLK 0.000128321
6 rx_data[3] *63:15 0.000419073
7 rx_data[3] *64:9 0.0017571
8 rx_data[3] *66:11 0.000432701
9 rx_data[3] *86:8 5.80963e-05
10 rx_data[3] *131:59 0.000279498
11 rx_data[12] rx_data[3] 0
12 rx_data[22] rx_data[3] 0.000135156
13 *6:10 *30:8 0.000317553
*RES
1 *812:X *30:8 41.48 
2 *30:8 rx_data[3] 33.0372 
*END

*D_NET *31 0.00336812
*CONN
*P rx_data[4] O
*I *813:X O *D sky130_fd_sc_hd__clkdlybuf4s25_1
*CAP
1 rx_data[4] 0.000377706
2 *813:X 0.000704471
3 *31:10 0.00108218
4 rx_data[4] *49:15 0.000553864
5 rx_data[4] *54:11 0.0005318
6 *31:10 *672:CLK 0
7 *31:10 *672:RESET_B 4.83949e-05
8 *31:10 *64:9 0
9 *31:10 *95:10 1.14452e-05
10 *31:10 *160:12 5.82662e-05
*RES
1 *813:X *31:10 49.9832 
2 *31:10 rx_data[4] 9.904 
*END

*D_NET *32 0.00309291
*CONN
*P rx_data[5] O
*I *814:X O *D sky130_fd_sc_hd__clkdlybuf4s25_1
*CAP
1 rx_data[5] 0.00095996
2 *814:X 0
3 *32:6 0.00095996
4 rx_data[5] *47:15 0.00039265
5 rx_data[5] *56:13 0
6 rx_data[5] *64:7 0.000168162
7 rx_data[5] *65:13 5.28502e-05
8 rx_data[5] *94:10 0
9 rx_data[5] *102:10 0
10 rx_data[5] *135:31 4.83778e-05
11 rx_data[5] *215:10 0
12 rx_data[5] *215:23 0
13 rx_data[18] rx_data[5] 6.43108e-05
14 rx_data[19] rx_data[5] 0.000379483
15 rx_data[26] rx_data[5] 6.71555e-05
*RES
1 *814:X *32:6 38 
2 *32:6 rx_data[5] 26.5269 
*END

*D_NET *33 0.00416519
*CONN
*P rx_data[6] O
*I *815:X O *D sky130_fd_sc_hd__clkdlybuf4s25_1
*CAP
1 rx_data[6] 0.00022471
2 *815:X 0.000712395
3 *33:8 0.000937105
4 rx_data[6] *58:13 0.000480795
5 *33:8 *635:A0 0.000565596
6 *33:8 *635:A1 2.31591e-05
7 *33:8 *186:14 0.000235062
8 *33:8 *216:22 0.00011237
9 *33:8 *224:30 0.000310861
10 rx_data[28] rx_data[6] 0.000480795
11 *6:10 *33:8 8.23392e-05
*RES
1 *815:X *33:8 39.3643 
2 *33:8 rx_data[6] 26.7243 
*END

*D_NET *34 0.00292616
*CONN
*P rx_data[7] O
*I *816:X O *D sky130_fd_sc_hd__clkdlybuf4s25_1
*CAP
1 rx_data[7] 0.000704462
2 *816:X 0.000239074
3 *34:8 0.000943536
4 rx_data[7] *40:11 5.5403e-05
5 rx_data[7] *67:13 0.000209332
6 rx_data[7] *142:10 3.84822e-05
7 rx_data[7] *187:8 0
8 rx_data[7] *225:14 0
9 rx_data[7] *225:20 0
10 *34:8 *142:10 0.000306147
11 *34:8 *187:14 9.70056e-05
12 rx_data[11] rx_data[7] 0.000187555
13 *4:13 *34:8 0.000145163
*RES
1 *816:X *34:8 43.3857 
2 *34:8 rx_data[7] 19.5851 
*END

*D_NET *35 0.00362752
*CONN
*P rx_data[8] O
*I *817:X O *D sky130_fd_sc_hd__clkdlybuf4s25_1
*CAP
1 rx_data[8] 0.00010831
2 *817:X 8.62184e-05
3 *35:14 0.00118542
4 *35:8 0.00116332
5 rx_data[8] *61:15 0.000284709
6 *35:8 *235:16 8.45288e-06
7 *35:14 *612:S 0.000125915
8 *35:14 *634:S 9.63918e-05
9 *35:14 *661:CLK 0
10 *35:14 *743:A 0.000136142